<?xml version="1.0" encoding="ISO-8859-1"?>
<febio_spec version="4.0">
	<Module type="solid"/>
	<Control>
		<analysis>STATIC</analysis>
		<time_steps>10</time_steps>
		<step_size>0.1</step_size>
		<plot_zero_state>0</plot_zero_state>
		<plot_range>0,-1</plot_range>
		<plot_level>PLOT_MAJOR_ITRS</plot_level>
		<output_level>OUTPUT_MAJOR_ITRS</output_level>
		<plot_stride>1</plot_stride>
		<output_stride>1</output_stride>
		<adaptor_re_solve>1</adaptor_re_solve>
		<time_stepper type="default">
			<max_retries>5</max_retries>
			<opt_iter>11</opt_iter>
			<dtmin>0</dtmin>
			<dtmax>1</dtmax>
			<aggressiveness>0</aggressiveness>
			<cutback>0.5</cutback>
			<dtforce>0</dtforce>
		</time_stepper>
		<solver type="solid">
			<symmetric_stiffness>non-symmetric</symmetric_stiffness>
			<equation_scheme>staggered</equation_scheme>
			<equation_order>default</equation_order>
			<optimize_bw>0</optimize_bw>
			<lstol>0.9</lstol>
			<lsmin>0.01</lsmin>
			<lsiter>5</lsiter>
			<ls_check_jacobians>0</ls_check_jacobians>
			<max_refs>15</max_refs>
			<check_zero_diagonal>0</check_zero_diagonal>
			<zero_diagonal_tol>0</zero_diagonal_tol>
			<force_partition>0</force_partition>
			<reform_each_time_step>1</reform_each_time_step>
			<reform_augment>0</reform_augment>
			<diverge_reform>1</diverge_reform>
			<min_residual>1e-20</min_residual>
			<max_residual>0</max_residual>
			<dtol>0.001</dtol>
			<etol>0.01</etol>
			<rtol>0</rtol>
			<rhoi>-2</rhoi>
			<alpha>1</alpha>
			<beta>0.25</beta>
			<gamma>0.5</gamma>
			<logSolve>0</logSolve>
			<arc_length>0</arc_length>
			<arc_length_scale>0</arc_length_scale>
			<qn_method type="BFGS">
				<max_ups>10</max_ups>
				<max_buffer_size>0</max_buffer_size>
				<cycle_buffer>1</cycle_buffer>
				<cmax>100000</cmax>
			</qn_method>
			<linear_solver type="pardiso">
				<print_condition_number>0</print_condition_number>
				<precondition>0</precondition>
				<msglvl>0</msglvl>
			</linear_solver>
		</solver>
	</Control>
	<Globals>
		<Constants>
			<T>298</T>
			<P>0</P>
			<R>8.314e-06</R>
			<Fc>9.6485e-05</Fc>
		</Constants>
	</Globals>
	<Material>
		<material id="1" name="solid" type="neo-Hookean">
			<density>1</density>
			<E>10</E>
			<v>0.49</v>
		</material>
	</Material>
	<Mesh>
		<Nodes name="Object1">
			<node id="1">0.0544,0.0328,0</node>
			<node id="2">0.0544,0.058,0</node>
			<node id="3">0.0548,0.058,0</node>
			<node id="4">0.0552,0.0576,0</node>
			<node id="5">0.0564,0.0576,0</node>
			<node id="6">0.0568,0.0572,0</node>
			<node id="7">0.0584,0.0572,0</node>
			<node id="8">0.0588,0.0568,0</node>
			<node id="9">0.06,0.0568,0</node>
			<node id="10">0.0604,0.0564,0</node>
			<node id="11">0.0644,0.0564,0</node>
			<node id="12">0.0648,0.0568,0</node>
			<node id="13">0.0652,0.0568,0</node>
			<node id="14">0.0656,0.0572,0</node>
			<node id="15">0.066,0.0572,0</node>
			<node id="16">0.0664,0.0576,0</node>
			<node id="17">0.0664,0.0444,0</node>
			<node id="18">0.0652,0.0444,0</node>
			<node id="19">0.0648,0.0448,0</node>
			<node id="20">0.0632,0.0448,0</node>
<!-- ... 425 like lines cut -->
		</Nodes>
		<Elements type="tet4" name="solid">
			<elem id="1">421,403,327,442</elem>
			<elem id="2">257,163,239,442</elem>
			<elem id="3">198,255,191,439</elem>
			<elem id="4">311,407,424,443</elem>
			<elem id="5">362,355,419,439</elem>
			<elem id="6">147,260,243,443</elem>
			<elem id="7">67,34,1,294</elem>
			<elem id="8">317,399,235,440</elem>
			<elem id="9">16,116,49,282</elem>
			<elem id="10">358,153,194,440</elem>
			<elem id="11">273,274,35,409</elem>
			<elem id="12">274,35,36,273</elem>
			<elem id="13">327,239,163,442</elem>
			<elem id="14">358,317,153,440</elem>
			<elem id="15">317,235,153,440</elem>
			<elem id="16">274,3,2,273</elem>
			<elem id="17">239,327,403,442</elem>
			<elem id="18">1,33,67,294</elem>
			<elem id="19">236,400,229,437</elem>
			<elem id="20">116,48,49,282</elem>
<!-- ... 1135 like lines cut -->
		</Elements>
		<NodeSet name="surface">
			1, 2, 3, 4, 5, 6, 7, 8,
			9, 10, 11, 12, 13, 14, 15, 16,
			17, 18, 19, 20, 21, 22, 23, 24,
			25, 26, 27, 28, 29, 30, 31, 32,
			33, 67, 68, 69, 70, 71, 72, 73,
			74, 75, 76, 77, 78, 79, 80, 81,
			82, 83, 84, 85, 86, 87, 88, 89,
			90, 91, 92, 93, 94, 95, 96, 97,
			98, 131, 132, 133, 134, 135, 136, 137,
			138, 139, 140, 141, 142, 143, 144, 145,
			146, 147, 148, 149, 150, 151, 152, 153,
			154, 155, 156, 157, 158, 159, 160, 161,
			162, 163, 164, 165, 166, 167, 168, 169,
			170, 171, 172, 173, 174, 175, 176, 177,
			178, 179, 180, 181, 182, 183, 184, 185,
			186, 187, 188, 189, 190, 191, 192, 193,
			194, 195, 196, 197, 198, 199, 200, 201,
			202, 203, 204, 205, 206, 207, 208, 209,
			210, 211, 212, 213, 214, 215, 216, 217,
			218, 219, 220, 221, 222, 223, 224, 225,
<!-- ... 6 like lines cut -->
		</NodeSet>
		<Surface name="Pressure1">
			<tri3 id="1">16,282,49</tri3>
			<tri3 id="2">35,36,273</tri3>
			<tri3 id="3">3,2,273</tri3>
			<tri3 id="4">48,49,282</tri3>
			<tri3 id="5">44,11,83</tri3>
			<tri3 id="6">4,3,274</tri3>
			<tri3 id="7">37,274,36</tri3>
			<tri3 id="8">115,44,83</tri3>
			<tri3 id="9">15,48,282</tri3>
			<tri3 id="10">273,2,35</tri3>
			<tri3 id="11">46,13,279</tri3>
			<tri3 id="12">114,115,82</tri3>
			<tri3 id="13">83,82,115</tri3>
			<tri3 id="14">41,9,8</tri3>
			<tri3 id="15">42,9,41</tri3>
			<tri3 id="16">39,7,6</tri3>
			<tri3 id="17">40,7,39</tri3>
			<tri3 id="18">114,10,43</tri3>
			<tri3 id="19">38,5,37</tri3>
			<tri3 id="20">37,5,4</tri3>
<!-- ... 32 like lines cut -->
		</Surface>
		<Surface name="NormalDisplacement1">
			<tri3 id="1">67,1,34</tri3>
			<tri3 id="2">78,111,79</tri3>
			<tri3 id="3">111,78,110</tri3>
			<tri3 id="4">76,109,77</tri3>
			<tri3 id="5">100,69,68</tri3>
			<tri3 id="6">101,69,100</tri3>
			<tri3 id="7">70,69,101</tri3>
			<tri3 id="8">109,76,108</tri3>
			<tri3 id="9">70,101,102</tri3>
			<tri3 id="10">77,109,110</tri3>
			<tri3 id="11">102,71,70</tri3>
			<tri3 id="12">110,78,77</tri3>
			<tri3 id="13">71,102,103</tri3>
			<tri3 id="14">72,71,103</tri3>
			<tri3 id="15">104,72,103</tri3>
			<tri3 id="16">72,104,105</tri3>
			<tri3 id="17">73,72,105</tri3>
			<tri3 id="18">81,80,113</tri3>
			<tri3 id="19">75,74,106</tri3>
			<tri3 id="20">80,112,113</tri3>
<!-- ... 30 like lines cut -->
		</Surface>
		<Surface name="surface">
			<tri3 id="1">1,67,33</tri3>
			<tri3 id="2">4,2,3</tri3>
			<tri3 id="3">245,2,4</tri3>
			<tri3 id="4">81,2,245</tri3>
			<tri3 id="5">4,5,141</tri3>
			<tri3 id="6">141,245,4</tri3>
			<tri3 id="7">6,141,5</tri3>
			<tri3 id="8">139,6,7</tri3>
			<tri3 id="9">139,268,6</tri3>
			<tri3 id="10">141,6,146</tri3>
			<tri3 id="11">146,6,268</tri3>
			<tri3 id="12">240,7,8</tri3>
			<tri3 id="13">7,240,139</tri3>
			<tri3 id="14">8,9,140</tri3>
			<tri3 id="15">8,140,272</tri3>
			<tri3 id="16">272,240,8</tri3>
			<tri3 id="17">251,9,10</tri3>
			<tri3 id="18">140,9,251</tri3>
			<tri3 id="19">82,252,10</tri3>
			<tri3 id="20">251,10,252</tri3>
<!-- ... 327 like lines cut -->
		</Surface>
	</Mesh>
	<MeshDomains>
		<SolidDomain name="solid" mat="solid"/>
	</MeshDomains>
	<Boundary>
		<bc name="NormalDisplacement1" surface="NormalDisplacement1" type="normal displacement">
			<scale>0</scale>
			<surface_hint>0</surface_hint>
			<relative>0</relative>
		</bc>
	</Boundary>
	<Loads>
		<surface_load name="Pressure1" surface="Pressure1" type="pressure">
			<pressure lc="1">1</pressure>
			<symmetric_stiffness>1</symmetric_stiffness>
			<linear>0</linear>
			<shell_bottom>0</shell_bottom>
		</surface_load>
	</Loads>
	<LoadData>
		<load_controller id="1" name="LC1" type="loadcurve">
			<interpolate>LINEAR</interpolate>
			<extend>CONSTANT</extend>
			<points>
				<pt>0,0</pt>
				<pt>1,1</pt>
			</points>
		</load_controller>
	</LoadData>
	<Output>
		<logfile>
			<node_data data="ux;uy;uz" file="dic_test_04_simple2_log_node_uxuyuz.txt"/>
			<element_data data="sx;sy;sz;sxy;syz;sxz" file="dic_test_04_simple2_log_element_sxsyszsxysyzsxz.txt"/>
		</logfile>
	</Output>
</febio_spec>
